network/Integrated/Loads.txt
New Load.LAOD11 Phases=1 Bus1=134.1 kV=0.23 kW=1 PF=0.95 Yearly=Shape_1
New Load.LAOD12 Phases=1 Bus1=147.2 kV=0.23 kW=1 PF=0.95 Yearly=Shape_2
New Load.LAOD13 Phases=1 Bus1=170.1 kV=0.23 kW=1 PF=0.95 Yearly=Shape_3
New Load.LAOD14 Phases=1 Bus1=173.1 kV=0.23 kW=1 PF=0.95 Yearly=Shape_4
New Load.LAOD15 Phases=1 Bus1=174.1 kV=0.23 kW=1 PF=0.95 Yearly=Shape_5
New Load.LAOD16 Phases=1 Bus1=183.2 kV=0.23 kW=1 PF=0.95 Yearly=Shape_6
New Load.LAOD17 Phases=1 Bus1=1178.2 kV=0.23 kW=1 PF=0.95 Yearly=Shape_7
New Load.LAOD18 Phases=1 Bus1=1208.3 kV=0.23 kW=1 PF=0.95 Yearly=Shape_8
New Load.LAOD19 Phases=1 Bus1=1225.1 kV=0.23 kW=1 PF=0.95 Yearly=Shape_9
New Load.LAOD110 Phases=1 Bus1=1248.2 kV=0.23 kW=1 PF=0.95 Yearly=Shape_10
New Load.LAOD111 Phases=1 Bus1=1249.2 kV=0.23 kW=1 PF=0.95 Yearly=Shape_11
New Load.LAOD112 Phases=1 Bus1=1264.3 kV=0.23 kW=1 PF=0.95 Yearly=Shape_12
New Load.LAOD113 Phases=1 Bus1=1276.2 kV=0.23 kW=1 PF=0.95 Yearly=Shape_13
New Load.LAOD114 Phases=1 Bus1=1289.1 kV=0.23 kW=1 PF=0.95 Yearly=Shape_14
New Load.LAOD115 Phases=1 Bus1=1314.2 kV=0.23 kW=1 PF=0.95 Yearly=Shape_15
New Load.LAOD116 Phases=1 Bus1=1320.3 kV=0.23 kW=1 PF=0.95 Yearly=Shape_16
New Load.LAOD117 Phases=1 Bus1=1327.3 kV=0.23 kW=1 PF=0.95 Yearly=Shape_17
New Load.LAOD118 Phases=1 Bus1=1337.3 kV=0.23 kW=1 PF=0.95 Yearly=Shape_18
New Load.LAOD119 Phases=1 Bus1=1342.3 kV=0.23 kW=1 PF=0.95 Yearly=Shape_19
New Load.LAOD120 Phases=1 Bus1=1349.1 kV=0.23 kW=1 PF=0.95 Yearly=Shape_20
New Load.LAOD121 Phases=1 Bus1=1387.1 kV=0.23 kW=1 PF=0.95 Yearly=Shape_21
New Load.LAOD122 Phases=1 Bus1=1388.1 kV=0.23 kW=1 PF=0.95 Yearly=Shape_22
New Load.LAOD123 Phases=1 Bus1=1406.2 kV=0.23 kW=1 PF=0.95 Yearly=Shape_23
New Load.LAOD124 Phases=1 Bus1=1458.3 kV=0.23 kW=1 PF=0.95 Yearly=Shape_24
New Load.LAOD125 Phases=1 Bus1=1502.1 kV=0.23 kW=1 PF=0.95 Yearly=Shape_25
New Load.LAOD126 Phases=1 Bus1=1522.2 kV=0.23 kW=1 PF=0.95 Yearly=Shape_26
New Load.LAOD127 Phases=1 Bus1=1539.3 kV=0.23 kW=1 PF=0.95 Yearly=Shape_27
New Load.LAOD128 Phases=1 Bus1=1556.3 kV=0.23 kW=1 PF=0.95 Yearly=Shape_28
New Load.LAOD129 Phases=1 Bus1=1562.1 kV=0.23 kW=1 PF=0.95 Yearly=Shape_29
New Load.LAOD130 Phases=1 Bus1=1563.1 kV=0.23 kW=1 PF=0.95 Yearly=Shape_30
New Load.LAOD131 Phases=1 Bus1=1611.1 kV=0.23 kW=1 PF=0.95 Yearly=Shape_31
New Load.LAOD132 Phases=1 Bus1=1614.3 kV=0.23 kW=1 PF=0.95 Yearly=Shape_32
New Load.LAOD133 Phases=1 Bus1=1619.3 kV=0.23 kW=1 PF=0.95 Yearly=Shape_33
New Load.LAOD134 Phases=1 Bus1=1629.1 kV=0.23 kW=1 PF=0.95 Yearly=Shape_34
New Load.LAOD135 Phases=1 Bus1=1639.2 kV=0.23 kW=1 PF=0.95 Yearly=Shape_35
New Load.LAOD136 Phases=1 Bus1=1676.2 kV=0.23 kW=1 PF=0.95 Yearly=Shape_36
New Load.LAOD137 Phases=1 Bus1=1682.2 kV=0.23 kW=1 PF=0.95 Yearly=Shape_37
New Load.LAOD138 Phases=1 Bus1=1688.2 kV=0.23 kW=1 PF=0.95 Yearly=Shape_38
New Load.LAOD139 Phases=1 Bus1=1701.3 kV=0.23 kW=1 PF=0.95 Yearly=Shape_39
New Load.LAOD140 Phases=1 Bus1=1702.2 kV=0.23 kW=1 PF=0.95 Yearly=Shape_40
New Load.LAOD141 Phases=1 Bus1=1755.2 kV=0.23 kW=1 PF=0.95 Yearly=Shape_41
New Load.LAOD142 Phases=1 Bus1=1778.3 kV=0.23 kW=1 PF=0.95 Yearly=Shape_42
New Load.LAOD143 Phases=1 Bus1=1780.3 kV=0.23 kW=1 PF=0.95 Yearly=Shape_43
New Load.LAOD144 Phases=1 Bus1=1785.2 kV=0.23 kW=1 PF=0.95 Yearly=Shape_44
New Load.LAOD145 Phases=1 Bus1=1813.2 kV=0.23 kW=1 PF=0.95 Yearly=Shape_45
New Load.LAOD146 Phases=1 Bus1=1817.1 kV=0.23 kW=1 PF=0.95 Yearly=Shape_46
New Load.LAOD147 Phases=1 Bus1=1835.3 kV=0.23 kW=1 PF=0.95 Yearly=Shape_47
New Load.LAOD148 Phases=1 Bus1=1860.1 kV=0.23 kW=1 PF=0.95 Yearly=Shape_48
New Load.LAOD149 Phases=1 Bus1=1861.1 kV=0.23 kW=1 PF=0.95 Yearly=Shape_49
New Load.LAOD150 Phases=1 Bus1=1886.2 kV=0.23 kW=1 PF=0.95 Yearly=Shape_50
New Load.LAOD151 Phases=1 Bus1=1896.1 kV=0.23 kW=1 PF=0.95 Yearly=Shape_51
New Load.LAOD152 Phases=1 Bus1=1898.1 kV=0.23 kW=1 PF=0.95 Yearly=Shape_52
New Load.LAOD153 Phases=1 Bus1=1899.2 kV=0.23 kW=1 PF=0.95 Yearly=Shape_53
New Load.LAOD154 Phases=1 Bus1=1900.1 kV=0.23 kW=1 PF=0.95 Yearly=Shape_54
New Load.LAOD155 Phases=1 Bus1=1906.1 kV=0.23 kW=1 PF=0.95 Yearly=Shape_55

!Feeder 2
New Load.LOAD21 Phases=1 Bus1=2115.1 kV=0.23 kW=1 PF=0.95 Daily=Shape_1
New Load.LOAD22 Phases=1 Bus1=2181.1 kV=0.23 kW=1 PF=0.95 Daily=Shape_2
New Load.LOAD23 Phases=1 Bus1=2196.3 kV=0.23 kW=1 PF=0.95 Daily=Shape_3
New Load.LOAD24 Phases=1 Bus1=2219.1 kV=0.23 kW=1 PF=0.95 Daily=Shape_4
New Load.LOAD25 Phases=1 Bus1=2222.2 kV=0.23 kW=1 PF=0.95 Daily=Shape_5
New Load.LOAD26 Phases=1 Bus1=2223.2 kV=0.23 kW=1 PF=0.95 Daily=Shape_6
New Load.LOAD27 Phases=1 Bus1=2232.3 kV=0.23 kW=1 PF=0.95 Daily=Shape_7
New Load.LOAD28 Phases=1 Bus1=2240.1 kV=0.23 kW=1 PF=0.95 Daily=Shape_8
New Load.LOAD29 Phases=1 Bus1=2271.2 kV=0.23 kW=1 PF=0.95 Daily=Shape_9
New Load.LOAD210 Phases=1 Bus1=2278.1 kV=0.23 kW=1 PF=0.95 Daily=Shape_10
New Load.LOAD211 Phases=1 Bus1=2279.1 kV=0.23 kW=1 PF=0.95 Daily=Shape_11
New Load.LOAD212 Phases=1 Bus1=2284.1 kV=0.23 kW=1 PF=0.95 Daily=Shape_12
New Load.LOAD213 Phases=1 Bus1=2317.2 kV=0.23 kW=1 PF=0.95 Daily=Shape_13
New Load.LOAD214 Phases=1 Bus1=2326.1 kV=0.23 kW=1 PF=0.95 Daily=Shape_14
New Load.LOAD215 Phases=1 Bus1=2327.1 kV=0.23 kW=1 PF=0.95 Daily=Shape_15
New Load.LOAD216 Phases=1 Bus1=2332.3 kV=0.23 kW=1 PF=0.95 Daily=Shape_16
New Load.LOAD217 Phases=1 Bus1=2345.3 kV=0.23 kW=1 PF=0.95 Daily=Shape_17
New Load.LOAD218 Phases=1 Bus1=2356.2 kV=0.23 kW=1 PF=0.95 Daily=Shape_18
New Load.LOAD219 Phases=1 Bus1=2361.3 kV=0.23 kW=1 PF=0.95 Daily=Shape_19
New Load.LOAD220 Phases=1 Bus1=2362.3 kV=0.23 kW=1 PF=0.95 Daily=Shape_20
New Load.LOAD221 Phases=1 Bus1=2364.1 kV=0.23 kW=1 PF=0.95 Daily=Shape_21
New Load.LOAD222 Phases=1 Bus1=2399.2 kV=0.23 kW=1 PF=0.95 Daily=Shape_22
New Load.LOAD223 Phases=1 Bus1=2415.3 kV=0.23 kW=1 PF=0.95 Daily=Shape_23
New Load.LOAD224 Phases=1 Bus1=2440.2 kV=0.23 kW=1 PF=0.95 Daily=Shape_24
New Load.LOAD225 Phases=1 Bus1=2443.3 kV=0.23 kW=1 PF=0.95 Daily=Shape_25
New Load.LOAD226 Phases=1 Bus1=2455.2 kV=0.23 kW=1 PF=0.95 Daily=Shape_26
New Load.LOAD227 Phases=1 Bus1=2456.2 kV=0.23 kW=1 PF=0.95 Daily=Shape_27
New Load.LOAD228 Phases=1 Bus1=2461.2 kV=0.23 kW=1 PF=0.95 Daily=Shape_28
New Load.LOAD229 Phases=1 Bus1=2469.1 kV=0.23 kW=1 PF=0.95 Daily=Shape_29
New Load.LOAD230 Phases=1 Bus1=2477.2 kV=0.23 kW=1 PF=0.95 Daily=Shape_30
New Load.LOAD231 Phases=1 Bus1=2479.3 kV=0.23 kW=1 PF=0.95 Daily=Shape_31
